Version 4
SHEET 1 880 680
WIRE 32 -640 16 -640
WIRE 208 -640 192 -640
WIRE 352 -640 336 -640
WIRE 16 -592 16 -640
WIRE 192 -592 192 -640
WIRE 336 -592 336 -640
WIRE 16 -480 16 -512
WIRE 128 -480 16 -480
WIRE 192 -480 192 -512
WIRE 192 -480 128 -480
WIRE 336 -480 336 -512
WIRE 336 -480 192 -480
WIRE 128 -432 128 -480
WIRE 128 64 16 64
WIRE 288 64 128 64
WIRE 16 96 16 64
WIRE 16 240 16 176
FLAG 16 240 0
FLAG 128 -432 0
FLAG 32 -640 +5V
IOPIN 32 -640 Out
FLAG 208 -640 -5V
IOPIN 208 -640 Out
FLAG 352 -640 3V3
IOPIN 352 -640 Out
FLAG 128 64 IN_SIGNAL_AD9833
SYMBOL voltage 16 80 R0
WINDOW 123 0 0 Left 2
WINDOW 39 0 0 Left 2
SYMATTR InstName V1
SYMATTR Value SINE(0.344V 0.306V 1k)
SYMBOL voltage 192 -608 R0
WINDOW 123 0 0 Left 2
WINDOW 39 0 0 Left 2
SYMATTR InstName V2
SYMATTR Value -5V
SYMBOL voltage 16 -608 R0
WINDOW 123 0 0 Left 2
WINDOW 39 0 0 Left 2
SYMATTR InstName V3
SYMATTR Value +5V
SYMBOL voltage 336 -608 R0
WINDOW 123 0 0 Left 2
WINDOW 39 0 0 Left 2
SYMATTR InstName V4
SYMATTR Value 3V3
SYMBOL Opamps\\ADA4891 256 -304 R0
SYMATTR InstName U1
TEXT 48 208 Left 2 !.tran 50ms
TEXT 48 240 Left 2 ;AC OFFS: (0.65V - 0.038V)/2 = 0.306V\nAMPL: (0.65V - 0.038V)/2 + 0.038V = 0.344V
TEXT -40 -704 Left 2 ;Voltage Outputs
TEXT -48 -32 Left 2 ;Input Signal from INTERNAL DAC FROM PROGRAMMING BOARD\nSinus, Triangular, Square Output
RECTANGLE Normal 484 -688 -48 -404 1
RECTANGLE Normal -52 12 596 304 1
