Version 4
SHEET 1 2568 680
WIRE 1344 -624 944 -624
WIRE 1488 -624 1344 -624
WIRE 1632 -624 1488 -624
WIRE 1664 -624 1632 -624
WIRE 1792 -624 1744 -624
WIRE 1872 -624 1792 -624
WIRE 2128 -624 1936 -624
WIRE 2208 -624 2128 -624
WIRE 2336 -624 2288 -624
WIRE 2096 -560 1952 -560
WIRE 2336 -560 2336 -624
WIRE 2336 -560 2288 -560
WIRE 2416 -560 2336 -560
WIRE 1952 -544 1952 -560
WIRE 1344 -528 1344 -624
WIRE 1632 -528 1632 -624
WIRE 1792 -528 1792 -624
WIRE 2096 -528 2096 -560
WIRE 2288 -528 2288 -560
WIRE 2288 -528 2096 -528
WIRE 944 -512 944 -624
WIRE 1008 -512 944 -512
WIRE 944 -448 944 -512
WIRE 1488 -432 1488 -624
WIRE 1552 -432 1488 -432
WIRE 1952 -432 1952 -464
WIRE 1952 -432 1872 -432
WIRE 2096 -432 2096 -464
WIRE 2096 -432 1952 -432
WIRE 2336 -432 2336 -560
WIRE 1952 -400 1952 -432
WIRE 944 -320 944 -368
WIRE 1712 -288 1712 -336
WIRE 2128 -288 2128 -560
WIRE 2128 -288 1712 -288
WIRE 1344 -272 1344 -464
WIRE 1712 -272 1712 -288
WIRE 1712 -272 1344 -272
WIRE 1952 -272 1952 -320
WIRE 1952 -272 1712 -272
WIRE 2336 -272 2336 -368
WIRE 2336 -272 1952 -272
WIRE 2368 -272 2336 -272
FLAG 944 -320 0
FLAG 1008 -512 +5V
IOPIN 1008 -512 Out
FLAG 2368 -272 0
FLAG 2416 -560 -5V
IOPIN 2416 -560 Out
SYMBOL voltage 944 -464 R0
SYMATTR InstName V1
SYMATTR Value +5V
SYMBOL LT1931 1712 -432 R0
SYMATTR InstName U1
SYMBOL res 1936 -560 R0
SYMATTR InstName R1
SYMATTR Value 29k4
SYMBOL res 1936 -416 R0
SYMATTR InstName R2
SYMATTR Value 10k
SYMBOL cap 1328 -528 R0
SYMATTR InstName C1
SYMATTR Value 4µ7
SYMBOL cap 2080 -528 R0
SYMATTR InstName C2
SYMATTR Value 220p
SYMBOL cap 1936 -640 R90
WINDOW 0 0 32 VBottom 2
WINDOW 3 32 32 VTop 2
SYMATTR InstName C3
SYMATTR Value 1µ
SYMBOL cap 2320 -432 R0
SYMATTR InstName C4
SYMATTR Value 22µ
SYMBOL ind 1648 -608 R270
WINDOW 0 32 56 VTop 2
WINDOW 3 5 56 VBottom 2
SYMATTR InstName L1
SYMATTR Value 10µ
SYMBOL ind 2192 -608 R270
WINDOW 0 32 56 VTop 2
WINDOW 3 5 56 VBottom 2
SYMATTR InstName L2
SYMATTR Value 10µ
SYMBOL schottky 2112 -624 R0
SYMATTR InstName D1
SYMATTR Value MBR0520L
SYMATTR Description Diode
SYMATTR Type diode
TEXT 1000 -256 Left 2 !.tran 1ms
